20
-219127.91848681556
 C    0.344934685362    1.137338862401   -1.721727775192
 C   -0.127929214918    0.070237709803   -0.726583193301
 C   -0.056940848413   -1.328439709622   -1.382018811538
 C    0.789852211095    0.038900385819    0.517622852648
 O    2.001825062499    0.041052235560    0.481893984249
 C   -0.065699852926   -0.001185752340    1.787459385360
 C   -1.493947086334   -0.279932228648    1.292426372388
 C   -1.526405956221    0.341938108474   -0.122831273246
 H    0.284673089828    2.142099502138   -1.287206442943
 H    1.386457960737    0.956238297841   -2.006067069650
 H   -0.271379431692    1.124038731184   -2.628558622291
 H    0.972684062929   -1.560210789252   -1.673506831230
 H   -0.401504183633   -2.120276584015   -0.706608484403
 H   -0.687218624703   -1.354917960548   -2.278937719620
 H    0.333015719387   -0.721034515645    2.508803887779
 H    0.004122959334    0.991056182932    2.256760760199
 H   -1.669151885976   -1.361187450667    1.236841825071
 H   -2.264379320876    0.136181129489    1.948761292296
 H   -2.337312674566   -0.057533899611   -0.741910556059
 H   -1.685817960773    1.425760190247   -0.041686562178

