19
-195215.29521449757
 C    0.631484987671    0.382144791891   -1.734140659922
 C   -0.298242260866    0.015705587000   -0.566433299065
 C   -1.467896732407    1.019141627121   -0.488366126810
 C   -0.855260215275   -1.413642543553   -0.779699561101
 C    0.512693570208    0.006104522664    0.748835516504
 O    1.729818004335   -0.011021604587    0.739811940853
 C   -0.241620605281    0.005067716339    2.072722528138
 H    0.080356025513    0.347347837105   -2.681056344399
 H    1.039430232772    1.391346207216   -1.612068783950
 H    1.477332710154   -0.307243710354   -1.794458349518
 H   -2.185655678302    0.760006258950    0.297098939643
 H   -1.109590391064    2.038401716550   -0.300462647265
 H   -2.011520975465    1.029988579328   -1.440263494502
 H   -1.426611272894   -1.452472437944   -1.714668752896
 H   -1.525183594807   -1.721043962805    0.031197382757
 H   -0.043558304439   -2.146304755055   -0.849001307461
 H    0.447855304290   -0.271737697404    2.872780462596
 H   -1.099030269966   -0.676192365872    2.066539351265
 H   -0.631342442432    1.009917781782    2.278383825350

