%nprocshared=30
%mem=30GB
%chk= 0.chk
# freq opt=tight b3lyp 6-31g(d)

good luck!

0 1
O      0.223046   -2.147120   -1.125476
C      0.210288   -1.084984   -0.508892
C     -1.081319   -0.387779   -0.289431
C     -1.358610    0.285701    0.906546
C     -2.590689    0.920410    1.077071
C     -3.548175    0.873238    0.063324
C     -3.282292    0.183962   -1.119773
C     -2.052770   -0.452251   -1.294872
C      1.489966   -0.530040   -0.004395
C      1.726670    0.843370    0.046232
C      2.956119    1.268074    0.517141
N      3.934801    0.430532    0.921406
C      3.686014   -0.894300    0.834982
C      2.492421   -1.420363    0.378927
H     -0.637867    0.308063    1.719733
H     -2.810024    1.442947    2.005234
H     -4.509110    1.363811    0.200328
H     -4.034697    0.135217   -1.903173
H     -1.853269   -0.999311   -2.214292
H      0.994595    1.570876   -0.284577
H      3.198720    2.325483    0.579244
H      4.499795   -1.541399    1.150288
H      2.346387   -2.494136    0.321775

