%nprocshared=30
%mem=30GB
%chk= 1.chk
# freq opt=tight b3lyp 6-31g(d)

good luck!

0 1
O     -0.519666   -1.864502   -1.543066
C     -0.359524   -0.924727   -0.768697
C      1.016381   -0.543207   -0.363931
C      2.045196   -0.662186   -1.305297
C      3.352777   -0.320874   -0.957608
C      3.636752    0.126410    0.332666
C      2.617496    0.224614    1.280380
C      1.307286   -0.115364    0.937279
C     -1.549409   -0.197301   -0.263641
C     -2.735063   -0.909597   -0.086479
C     -3.841953   -0.220877    0.371615
N     -3.838365    1.101252    0.648206
C     -2.684165    1.770199    0.440695
C     -1.521404    1.174468   -0.014017
H      1.829282   -1.022282   -2.309348
H      4.150267   -0.411214   -1.691130
H      4.657399    0.386687    0.603517
H      2.847278    0.555680    2.290447
H      0.532937   -0.061225    1.698000
H     -2.793485   -1.971666   -0.301372
H     -4.790294   -0.726390    0.531305
H     -2.723696    2.835389    0.651960
H     -0.636028    1.776712   -0.181484

