17
-241525.8501670518
C     -0.037812   -0.000027   -2.491358
C     -0.697404   -0.000074   -3.716368
C     -2.095107   -0.000105   -3.758023
C     -2.828339   -0.000084   -2.570050
C     -2.167021   -0.000065   -1.341985
C     -0.764845   -0.000032   -1.290401
C      0.000000    0.000000    0.000000
O      1.221795    0.000000    0.000000
C     -0.769969   -0.000032    1.311120
H      1.045823   -0.000016   -2.434130
H     -0.125506   -0.000086   -4.640358
H     -2.611128   -0.000126   -4.714530
H     -3.914513   -0.000106   -2.599539
H     -2.749099   -0.000056   -0.425523
H     -1.414994   -0.883320    1.390557
H     -0.054935   -0.000029    2.135442
H     -1.415027    0.883229    1.390579

