19
-195216.8051986818
 C    1.019133785423    1.383039473249   -2.684768243965
 C    0.229868591620    1.134267155407   -1.395818913643
 C   -0.197153542888   -0.330932006679   -1.233939089498
 C   -1.003736325851   -0.601599694713    0.039885442386
 C   -0.186209909161   -0.555279238630    1.328682131257
 C   -0.974593234374   -0.560762460177    2.628786120086
 O    1.030445796886   -0.526976827972    1.323733738491
 H    0.428355294087    1.119613903502   -3.571208291155
 H    1.308890083297    2.435819812949   -2.778715131474
 H    1.936326456494    0.782199911322   -2.707220700100
 H   -0.663873139222    1.775645035124   -1.384684699778
 H    0.838372533720    1.427363648376   -0.532152844980
 H    0.694405962425   -0.969349110369   -1.227347165016
 H   -0.798589515597   -0.631336960896   -2.102645536810
 H   -1.462365676041   -1.602224637308    0.000050765095
 H   -1.849679071904    0.095725835299    0.131603036828
 H   -1.495510283278    0.398264988682    2.748796000429
 H   -1.743522082518   -1.342601925698    2.624828681680
 H   -0.298116362006   -0.706742073416    3.473428786269

