19
-195216.80519843378
 C    1.019135989098   -1.383037592815   -2.684768385245
 C    0.229870715895   -1.134266336532   -1.395818906777
 C   -0.197153390400    0.330932219857   -1.233939134115
 C   -1.003736947018    0.601598716588    0.039885157638
 C   -0.186211022519    0.555278636318    1.328682231383
 C   -0.974594937088    0.560759874560    2.628785855037
 O    1.030444711135    0.526978003244    1.323734359565
 H    1.308893793261   -2.435817509150   -2.778715252490
 H    0.428356937622   -1.119612961218   -3.571208325550
 H    1.936327781376   -0.782196710275   -2.707221111321
 H    0.838375269727   -1.427361952179   -0.532152995890
 H   -0.663870075365   -1.775645477489   -1.384684523110
 H   -0.798589462180    0.631336478481   -2.102645735775
 H    0.694405245555    0.969350501532   -1.227346838569
 H   -1.849679126203   -0.095727536603    0.131602195408
 H   -1.462367152828    1.602223263800    0.000050672091
 H   -0.298118621200    0.706739904971    3.473428895366
 H   -1.743524907468    1.342598229158    2.624828630849
 H   -1.495510672372   -0.398268384997    2.748794918932

