19
-195216.9288441364
 C    0.187524380211   -0.000010046335   -3.467027339803
 C   -0.661282460062   -0.000003565619   -2.191509157286
 C    0.184040827978    0.000003036380   -0.911952526575
 C   -0.660506780039    0.000009555866    0.363300372599
 C    0.157211860109    0.000018430408    1.650985039355
 C   -0.627872229746   -0.000008532118    2.953822498877
 O    1.373792789728   -0.000002679556    1.641927882502
 H    0.834564247459    0.884476351654   -3.511379057195
 H    0.834564433281   -0.884496761059   -3.511369905127
 H   -0.440147029838   -0.000014798514   -4.365432576955
 H   -1.323172528452    0.878146292418   -2.193165007051
 H   -1.323172302305   -0.878153603688   -2.193155968414
 H    0.847092478565   -0.874168942222   -0.902455144404
 H    0.847092051912    0.874175419010   -0.902464329780
 H   -1.332152936541    0.872361045140    0.388289003480
 H   -1.332152321453   -0.872342173835    0.388298983653
 H   -1.279320355612    0.881070095015    3.011383994759
 H    0.061259437198   -0.000023859005    3.800790151555
 H   -1.279316534709   -0.881092254140    3.011350240044

