16
-251587.495755242
 C    0.798780370098   -0.000014976222   -1.007074832666
 N    0.236875805058    0.000034678087   -2.218179196431
 C   -1.102926397475    0.000046624633   -2.270522390895
 C   -1.923085120733    0.000007411992   -1.141291617769
 C   -1.321658847599   -0.000019714980    0.114617675399
 C    0.076284296654   -0.000031715391    0.198167057303
 C    0.832664196267   -0.000062452834    1.492852866610
 O    2.053314507790    0.000005517778    1.497358537568
 C    0.049209725093    0.000017074692    2.794966812652
 H    1.884874647570   -0.000000077735   -0.967139891043
 H   -1.540627367865    0.000054671893   -3.267492131759
 H   -3.003740634869   -0.000000424705   -1.246733432690
 H   -1.933711591209   -0.000049100252    1.011750877618
 H   -0.596506549921    0.883651539235    2.867272996972
 H    0.754798444494    0.000064602407    3.627303301634
 H   -0.596514202735   -0.883603014613    2.867374224632

