16
-251588.26415199935
 C   -1.271456485022    0.000004683377    0.086134532208
 N   -1.953999361503   -0.000000788551   -1.064464629344
 C   -1.240304539453   -0.000006023998   -2.196984788851
 C    0.157375466925    0.000004602880   -2.234798193204
 C    0.850669466634    0.000002673128   -1.031367541840
 C    0.128103244058   -0.000001881396    0.170043158344
 C    0.878407850880   -0.000013819474    1.468618263810
 O    2.099538522401    0.000000260473    1.471624376930
 C    0.095068676687    0.000005834404    2.769254943992
 H   -1.880358655408   -0.000012875007    0.987933334327
 H   -1.815726850647    0.000013867908   -3.121330418516
 H    0.680256318577    0.000017365405   -3.186532488904
 H    1.935318802129    0.000003565848   -0.988747360864
 H   -0.551514001122   -0.882907622416    2.839873619009
 H   -0.551507540816    0.882925805687    2.839851929292
 H    0.800051792845    0.000013521780    3.602152218530

