16
-264195.1416557952
C     -0.885739    1.358961   -4.172968
C     -0.623101   -0.060534   -3.694372
O      0.012631   -0.063553   -2.389409
C     -0.795661    0.004066   -1.329251
O     -2.008455    0.059864   -1.359239
C      0.000000    0.000000    0.000000
O      1.210517    0.000000   -0.000000
C     -0.856029    0.004066    1.242654
H     -1.290158    1.335416   -5.191293
H     -1.614097    1.857546   -3.527148
H      0.039848    1.943132   -4.182955
H      0.091786   -0.577318   -4.338222
H     -1.547951   -0.639760   -3.634871
H     -1.510454    0.882920    1.248889
H     -0.215076    0.002261    2.125802
H     -1.516617   -0.870426    1.250803

