16
-264195.14165331685
C     -0.885689   -1.358918   -4.172996
C     -0.623106    0.060578   -3.694370
O      0.012628    0.063594   -2.389409
C     -0.795661   -0.004070   -1.329251
O     -2.008454   -0.059906   -1.359239
C      0.000000    0.000000    0.000000
O      1.210517    0.000000    0.000000
C     -0.856028   -0.004070    1.242655
H      0.039921   -1.943052   -4.182997
H     -1.290112   -1.335368   -5.191319
H     -1.614025   -1.857546   -3.527184
H      0.091758    0.577404   -4.338211
H     -1.547980    0.639767   -3.634855
H     -1.510449   -0.882927    1.248890
H     -1.516619    0.870420    1.250805
H     -0.215075   -0.002263    2.125802

