20
-219125.37193482206
C     -0.017440    0.391035   -2.559921
C     -0.111416   -0.806809   -3.533578
C     -1.395289   -1.539148   -3.113586
C     -1.354880   -1.457519   -1.579860
C     -0.817723   -0.016368   -1.290709
C      0.000000    0.000000    0.000000
O      1.217227    0.000000    0.000000
C     -0.788951   -0.016368    1.299718
H      1.016946    0.629059   -2.300357
H     -0.463942    1.286396   -3.006496
H     -0.114860   -0.499627   -4.584887
H      0.750170   -1.471855   -3.392524
H     -2.277633   -1.005705   -3.493039
H     -1.450405   -2.569976   -3.481528
H     -0.645708   -2.203121   -1.195842
H     -2.323053   -1.649472   -1.105565
H     -1.681069    0.647291   -1.151067
H     -1.347612    0.922612    1.407050
H     -0.109600   -0.130569    2.146844
H     -1.527503   -0.827080    1.303010

