20
-219123.50765939907
C     -1.388908    1.404391   -1.622291
C     -2.543109    1.089815   -2.585490
C     -3.183312   -0.165710   -1.969174
C     -1.993201   -0.980934   -1.395424
C     -0.783793    0.006510   -1.307245
C      0.000000    0.000000    0.000000
O      1.217740    0.000000   -0.000000
C     -0.771720    0.006510    1.315644
H     -1.788693    1.865954   -0.708894
H     -0.641011    2.089647   -2.033316
H     -3.247359    1.921779   -2.696446
H     -2.142624    0.862779   -3.582477
H     -3.861482    0.130525   -1.158745
H     -3.777353   -0.740197   -2.687600
H     -2.245745   -1.416514   -0.423267
H     -1.732180   -1.818763   -2.050085
H     -0.053684   -0.232938   -2.086872
H     -0.165581    0.492619    2.083647
H     -1.747122    0.497195    1.240222
H     -0.947555   -1.028896    1.634508

