16
-251590.2808844469
 C    0.899982091314   -0.000049226407    1.425087106974
 O    2.120554085770    0.000019759382    1.403076612986
 C    0.123527323074   -0.000021257932    0.132003085074
 N   -1.217437276452   -0.000024053672    0.215403183429
 C   -1.908238810069    0.000006952827   -0.928061235240
 C   -1.309249044306    0.000021854428   -2.190664752004
 C    0.083691561312    0.000016849046   -2.267146659762
 C    0.816990188372    0.000002162386   -1.084035092232
 C    0.114219072230    0.000011961166    2.717916155462
 H   -2.992820483223   -0.000001500935   -0.832930340706
 H   -1.923062616848    0.000035248158   -3.086529835166
 H    0.586633510716    0.000034151286   -3.230360497011
 H    1.901258327985   -0.000000642263   -1.070908509627
 H   -0.541782489000   -0.875698636237    2.768339261082
 H    0.811403927951    0.000055391143    3.557717437266
 H   -0.541787215021    0.875724059726    2.768256017838

