14
-169769.00309889953
 C    0.122755353937    0.000206587090    0.784023169540
 O    1.343335429841   -0.000102613163    0.758195659602
 C   -0.684494214101    0.000069572642   -0.473948488548
 C   -0.109858671965    0.744504089228   -1.673847155890
 C   -0.109830021684   -0.744560318959   -1.673713477959
 C   -0.650107477455   -0.000046270203    2.090377128805
 H   -1.764900804885    0.000055953159   -0.357625703565
 H   -0.812725792348    1.273032480595   -2.311218802452
 H    0.837905240645    1.246012362023   -1.502881394975
 H   -0.812672058673   -1.273230138094   -2.310995502462
 H    0.837955372822   -1.245998670664   -1.502661127916
 H   -1.301691740305   -0.881446901159    2.147660410744
 H    0.043105961105   -0.000231795116    2.933663723158
 H   -1.301641911753    0.881367517152    2.148005583458

