21
-243032.03342810273
 C    0.567456123511    0.076027434934    1.443913531239
 O    1.640696245947    0.658842284428    1.555387666117
 C   -0.123192428652   -0.118114190583    0.143225241251
 C    0.231852377267    0.438360569410   -1.041214530666
 C    1.376301664992    1.350645484599   -1.351997879677
 C   -0.754921773501    0.066435338231   -2.128921973478
 C   -1.558936793836   -1.103659367958   -1.524057313845
 C   -1.403756997743   -0.933667885166    0.004788882136
 C   -0.115641819925   -0.494059512937    2.679982495171
 H    1.012135049551    2.254596543854   -1.860034656156
 H    1.930987679218    1.625448706135   -0.456451499184
 H    2.064807442307    0.860633407033   -2.055467063127
 H   -0.256819628124   -0.192121958961   -3.072433950620
 H   -1.395547147121    0.934866375516   -2.351836924207
 H   -2.603971155928   -1.120664881999   -1.848116044546
 H   -1.106070487579   -2.052988603910   -1.832287971540
 H   -1.361279308240   -1.898721471269    0.523465648746
 H   -2.259287233447   -0.390830014104    0.435548140158
 H    0.453433663550   -0.205657944616    3.565701251855
 H   -0.165821051611   -1.588976755735    2.624531403951
 H   -1.147455268410   -0.132403010579    2.768317114022

