16
-251587.20467850254
C      0.000000    0.000000    0.000000
O      1.219489   -0.000000    0.000000
C     -0.755511   -0.000001   -1.303022
C     -2.152715    0.000003   -1.384057
C     -2.752727   -0.000007   -2.644581
N     -2.068618    0.000006   -3.794096
C     -0.730294    0.000020   -3.707344
C     -0.033007    0.000001   -2.502114
C     -0.784570   -0.000001    1.298893
H     -2.773739    0.000012   -0.494036
H     -3.837745    0.000013   -2.733563
H     -0.191853    0.000008   -4.653296
H      1.051240   -0.000013   -2.472266
H     -1.431202    0.883115    1.367397
H     -0.081993   -0.000003    2.133722
H     -1.431202   -0.883118    1.367395

