20
-219125.37193395908
 C   -0.837869893712    1.122077506314   -0.273502838148
 C   -0.728107199379    1.292538902126   -1.796495850915
 C    0.522263991664    0.471490415765   -2.147913445877
 C    0.422770465869   -0.782428395108   -1.248213593621
 C   -0.454673665505   -0.375700080478   -0.030841501846
 C    0.234857795643   -0.538128241885    1.323053736061
 O    1.442349290923   -0.648409091551    1.430033717134
 C   -0.667486403367   -0.522945480223    2.546787341185
 H   -0.106654358667    1.777752642338    0.218160144178
 H   -1.826142833004    1.374175464313    0.125149534530
 H   -0.660720059046    2.343049599354   -2.101308772611
 H   -1.613467543828    0.863251808744   -2.285297961149
 H    0.590638089066    0.225062623736   -3.212912063367
 H    1.420449456826    1.046824415134   -1.889525021339
 H   -0.054796691543   -1.607319055869   -1.788536768722
 H    1.404430862676   -1.127305525367   -0.914467975263
 H   -1.380639746044   -0.965167524158   -0.010264912015
 H   -0.062772401996   -0.518244361569    3.455897300386
 H   -1.331399101301    0.349893259724    2.536898465618
 H   -1.311641864430   -1.411969661180    2.544447541885

