16
-251590.2808844469
C      0.000000    0.000000    0.000000
O      1.220770    0.000000    0.000000
C     -0.753014    0.000089   -1.306873
N     -2.095265    0.000161   -1.247664
C     -2.765337    0.000246   -2.403398
C     -2.143680    0.000244   -3.654997
C     -0.749587    0.000161   -3.706351
C     -0.037739    0.000089   -2.510211
C     -0.808945    0.000089    1.278452
H     -3.851458    0.000298   -2.327838
H     -2.741241    0.000304   -4.561783
H     -0.229360    0.000162   -4.660341
H      1.046116    0.000024   -2.477537
H     -1.465799   -0.875585    1.317026
H     -0.127015    0.000082    2.130687
H     -1.465703    0.875838    1.316968

