21
-243032.03342810273
C      0.000000    0.000000    0.000000
O      1.226354    0.000000   -0.000000
C     -0.814914   -0.002825   -1.241927
C     -0.347402    0.153547   -2.505097
C      1.059466    0.349539   -2.975123
C     -1.486600    0.167647   -3.503690
C     -2.691328   -0.377986   -2.708493
C     -2.335766   -0.107539   -1.228364
C     -0.756383   -0.002825    1.321879
H      1.124182    1.242230   -3.612901
H      1.756900    0.435376   -2.143610
H      1.365191   -0.498829   -3.604269
H     -1.259329   -0.419432   -4.403055
H     -1.654790    1.200262   -3.849643
H     -3.643425    0.070587   -3.007981
H     -2.774183   -1.458742   -2.871041
H     -2.710078   -0.896188   -0.564978
H     -2.787346    0.831945   -0.873959
H     -0.040787    0.086550    2.141302
H     -1.325688   -0.933565    1.440416
H     -1.479468    0.820642    1.369719

