21
-243030.527769056
C      0.000000    0.000000    0.000000
O      1.226357    0.000000    0.000000
C     -0.711504   -0.006514   -1.302782
C     -2.024611    0.131770   -1.607719
C     -3.235849    0.336865   -0.747955
C     -2.225121    0.119518   -3.113170
C     -0.891822   -0.422191   -3.669092
C      0.138053   -0.121306   -2.560063
C     -0.742642   -0.006514    1.328357
H     -3.938999   -0.496910   -0.883525
H     -3.771239    1.240792   -1.070016
H     -3.025446    0.431436    0.316106
H     -2.428646    1.145739   -3.459556
H     -3.096973   -0.478382   -3.410825
H     -0.623673    0.015092   -4.635724
H     -0.971840   -1.506074   -3.812707
H      0.910892   -0.889984   -2.464848
H      0.671708    0.823044   -2.737997
H     -1.485760   -0.809680    1.377000
H     -0.008676   -0.139956    2.125880
H     -1.266497    0.943301    1.489768

