19
-195215.30658856223
C     -0.308988   -3.697866   -2.623558
C      0.073560   -2.284325   -2.173437
C     -1.143907   -1.447176   -1.760084
C     -0.797414   -0.010503   -1.299208
C      0.000000    0.000000    0.000000
C     -0.795556   -0.010503    1.295795
O      1.217596   -0.000000   -0.000000
H      0.575059   -4.271655   -2.923180
H     -0.995303   -3.672555   -3.479243
H     -0.806589   -4.251540   -1.817516
H      0.601842   -1.768088   -2.986778
H      0.786168   -2.339211   -1.341731
H     -1.696379   -1.967128   -0.963756
H     -1.837844   -1.372938   -2.608195
H     -0.194006    0.484824   -2.067720
H     -1.726968    0.558416   -1.169197
H     -1.576557   -0.780288    1.277634
H     -1.304513    0.954281    1.422436
H     -0.127450   -0.176926    2.143155

