19
-195215.30658822283
C     -0.309133    3.697901   -2.623513
C      0.073473    2.284365   -2.173422
C     -1.143959    1.447167   -1.760065
C     -0.797412    0.010500   -1.299209
C      0.000000    0.000000    0.000000
C     -0.795557    0.010500    1.295795
O      1.217595    0.000000   -0.000000
H     -0.806745    4.251542   -1.817455
H      0.574889    4.271729   -2.923136
H     -0.995458    3.672580   -3.479190
H      0.786090    2.339263   -1.341724
H      0.601763    1.768162   -2.986779
H     -1.837901    1.372913   -2.608171
H     -1.696443    1.967089   -0.963725
H     -1.726947   -0.558453   -1.169206
H     -0.193987   -0.484795   -2.067729
H     -1.304507   -0.954288    1.422439
H     -1.576562    0.780279    1.277637
H     -0.127450    0.176927    2.143155

