19
-195216.80519843378
C      1.266403   -1.971686   -3.978240
C      0.466332   -1.721428   -2.696259
C      0.004696   -0.264249   -2.558834
C     -0.813135    0.007257   -1.292382
C      0.000000    0.000000    0.000000
C     -0.793577    0.007257    1.296931
O      1.216995   -0.000000    0.000000
H      1.580944   -3.018754   -4.054682
H      0.673267   -1.735884   -4.870863
H      2.169458   -1.350045   -4.006664
H      1.077972   -1.986829   -1.825879
H     -0.412290   -2.383220   -2.678433
H     -0.600026    0.008544   -3.434341
H      0.881134    0.394807   -2.558897
H     -1.642999   -0.708096   -1.192933
H     -1.294745    0.996179   -1.349516
H     -0.124118    0.182049    2.141694
H     -1.580458    0.770800    1.277933
H     -1.292534   -0.961679    1.429953

