%nprocshared=30
%mem=30GB
%chk= 1.chk
# freq opt=tight b3lyp 6-31g(d)

good luck!

0 1
O      0.243101    0.122107   -2.537420
C      0.036999    0.048638   -1.329133
C      1.189355   -0.082409   -0.403823
C      2.375645    0.590747   -0.717616
C      3.483435    0.482815    0.123984
C      3.412724   -0.307074    1.271378
C      2.239163   -0.997788    1.575242
C      1.127646   -0.892725    0.736494
C     -1.354444    0.098396   -0.832871
C     -1.706703    0.672465    0.390449
C     -3.046323    0.687983    0.775007
C     -3.985991    0.136214   -0.082258
N     -3.679371   -0.411940   -1.277821
C     -2.370334   -0.407230   -1.633765
H      2.438656    1.198009   -1.618574
H      4.403302    1.008678   -0.120015
H      4.278997   -0.394654    1.923085
H      2.195381   -1.627624    2.460685
H      0.233262   -1.462640    0.974269
H     -0.961626    1.124046    1.039183
H     -3.352755    1.127957    1.717943
H     -5.041903    0.126042    0.174275
H     -2.158216   -0.840014   -2.608699

