%nprocshared=30
%mem=30GB
%chk= 3.chk
# freq opt=tight b3lyp 6-31g(d)

good luck!

0 1
O      0.387000   -1.742074   -1.663404
C      0.254769   -0.844004   -0.835862
C     -1.106555   -0.487543   -0.365031
C     -1.355395   -0.135361    0.967256
C     -2.653525    0.184954    1.370060
C     -3.702373    0.141320    0.451054
C     -3.460186   -0.231624   -0.870883
C     -2.164877   -0.552453   -1.278661
C      1.458547   -0.145391   -0.336319
C      2.671863   -0.831324   -0.257231
C      3.806027   -0.165751    0.201417
C      3.686216    1.168663    0.556760
N      2.531367    1.866824    0.476326
C      1.445137    1.197517    0.018007
H     -0.558632   -0.123482    1.706656
H     -2.850306    0.459698    2.403798
H     -4.713156    0.387230    0.768355
H     -4.280582   -0.278907   -1.582872
H     -1.981920   -0.853882   -2.308298
H      2.733417   -1.876322   -0.552557
H      4.760507   -0.675345    0.275304
H      4.542693    1.729942    0.920597
H      0.549964    1.807314   -0.064469

