9
-144310.13108563877
 C   -1.042025690800    0.000466332939   -1.921463699369
 C   -0.427767253472   -0.000369149562   -0.879658015668
 C    0.306036995787   -0.001392042199    0.382204229299
 O    1.523892557277    0.000812858917    0.400496929951
 C   -0.543608245999    0.000023016077    1.635941002844
 H   -1.569380054490    0.001192609476   -2.849442198924
 H   -1.195442317082   -0.881792089382    1.651772507585
 H    0.104602391223    0.001206049194    2.514615295137
 H   -1.195767800240    0.881636383498    1.649644329123

