16
-170546.56599319345
 C    0.228496036722   -0.769439462955   -1.771667941960
 C   -0.554876988267   -0.145811723026   -0.611600426337
 C   -0.972983177967    1.306494657733   -0.931394329315
 C    0.272549723215   -0.141287197776    0.679859267405
 O    1.484770433802   -0.035329178654    0.658058153336
 C   -0.491743353817   -0.254951165482    1.988499126181
 H   -0.357320542769   -0.731375187817   -2.696811562106
 H    0.476506840653   -1.816808642836   -1.567674472335
 H    1.168018691747   -0.231719757137   -1.928322217083
 H   -1.469586132576   -0.727352972805   -0.428438172466
 H   -1.548707328396    1.759514856902   -0.116060265675
 H   -1.593931590133    1.331939104990   -1.833615391244
 H   -0.087702404553    1.927434355317   -1.108204173432
 H   -0.903943806779   -1.268358997021    2.084053631608
 H   -1.342135469059    0.436680404045    2.016206442450
 H    0.175624582890   -0.059780143297    2.830440371803

