16
-170546.5659981017
 C    0.228489550794    0.769450491954   -1.771663619255
 C   -0.554878800196    0.145811232631   -0.611599030872
 C   -0.972974016325   -1.306496780842   -0.931399743178
 C    0.272549194246    0.141283421257    0.679859726601
 O    1.484768302610    0.035307433022    0.658058096179
 C   -0.491742030398    0.254967381997    1.988498655745
 H   -0.357325736632    0.731384516193   -2.696808006984
 H    0.476490499812    1.816821291763   -1.567666095165
 H    1.168017096609    0.231739602707   -1.928318614825
 H   -1.469591924885    0.727344987823   -0.428433078651
 H   -1.593925985476   -1.331941511516   -1.833618360314
 H   -0.087688466055   -1.927427676026   -1.108216287341
 H   -1.548690796796   -1.759526452673   -0.116065620427
 H    0.175616162418    0.059765919530    2.830440572325
 H   -1.342163038973   -0.436628819247    2.016199523505
 H   -0.903900889745    1.268391917267    2.084057577023

