12
-169019.25812825595
O      1.216117    0.000000    0.000000
C      0.000000    0.000000    0.000000
C     -0.895136   -0.000075   -1.181817
C     -2.178863   -0.000123   -0.793255
C     -2.347650   -0.000120    0.708737
C     -0.902064   -0.000075    1.247833
H     -0.518191   -0.000082   -2.198413
H     -3.033864   -0.000170   -1.464519
H     -2.921612    0.876814    1.036396
H     -2.921551   -0.877095    1.036398
H     -0.672535    0.879030    1.859303
H     -0.672464   -0.879189    1.859264

