14
-169769.00314365092
C      0.000000    0.000000    0.000000
O      1.220878   -0.000000   -0.000000
C     -0.780516   -0.000124   -1.274759
C     -0.180702   -0.744684   -2.462138
C     -0.181000    0.744405   -2.462246
C     -0.800261   -0.000124    1.289755
H     -1.863172   -0.000276   -1.181095
H     -0.870392   -1.272969   -3.113968
H      0.763273   -1.246145   -2.271360
H      0.762698    1.246458   -2.271569
H     -0.870637    1.272396   -3.114386
H     -0.125014    0.000314    2.147508
H     -1.453208    0.881070    1.333418
H     -1.452428   -0.881862    1.333675

