%nprocshared=30
%mem=30GB
%chk= 0.chk
# freq opt=tight b3lyp 6-31g(d)

good luck!

0 1
C     -2.631748    0.583353   -0.379421
C     -1.727804   -0.421659    0.285439
O     -2.190076   -1.370040    0.916882
C     -0.248440   -0.252536    0.168532
C      0.329073    0.809378   -0.538784
C      1.720020    0.924054   -0.619247
C      2.538679   -0.017152    0.003566
C      1.971003   -1.076210    0.708950
C      0.582307   -1.194203    0.791625
H     -3.674395    0.307359   -0.192753
H     -2.470056    0.581926   -1.460430
H     -2.465324    1.578858    0.040102
H     -0.277413    1.560330   -1.035849
H      2.166492    1.749426   -1.168997
H      3.620299    0.074528   -0.060673
H      2.607215   -1.811480    1.195505
H      0.150168   -2.025931    1.345552

