15
-193690.92138436483
 O    2.290276540069   -0.079864174928    0.031051482201
 C    1.068376501898   -0.095140821163    0.011199359290
 C    0.313503638423   -0.137613437955   -1.261902630548
 C   -1.029941996210   -0.126128266378   -1.301363044955
 C   -1.894717859067   -0.013500425637   -0.073859231489
 C   -1.121653457552    0.567806583206    1.118979808031
 C    0.237066468979   -0.125418695722    1.290843164397
 H    0.913026458909   -0.201511053293   -2.166402918491
 H   -1.537180561515   -0.204784185730   -2.262581444485
 H   -2.777056837518    0.599569013066   -0.298308346138
 H   -2.286857165752   -1.013064836385    0.176656648465
 H   -1.714594957739    0.481559746244    2.036738846513
 H   -0.958688765206    1.639781935991    0.945797714551
 H    0.830978406523    0.316878312109    2.096512658781
 H    0.084262211249   -1.184463304109    1.551873626322

