21
-243033.27404803486
 C    0.845118354953   -0.017785525702    1.559769050405
 O    2.068940217663   -0.040086446197    1.570707481345
 C    0.112225974122   -0.009661969235    0.258679915628
 C   -1.232027132642    0.038060854587    0.199984242294
 C   -2.021824296589    0.086272685290   -1.081000274114
 C   -1.145411332146    0.390752687591   -2.305108623195
 C    0.162756147377   -0.407573285661   -2.243791908075
 C    0.970202661753   -0.046903212921   -0.989389299582
 C    0.071399578669    0.008542236607    2.872201144189
 H   -1.812488849231    0.039810744823    1.120624572196
 H   -2.536199506668   -0.879803884655   -1.212055143011
 H   -2.826020400216    0.829031821206   -0.984117396859
 H   -1.697700059532    0.170205259538   -3.226260458566
 H   -0.911883113400    1.464186626107   -2.325090975151
 H   -0.070975533467   -1.481708947804   -2.231611172605
 H    0.766810431684   -0.227959001230   -3.141043931753
 H    1.792609651605   -0.753279474479   -0.833591776400
 H    1.455833717642    0.931534025963   -1.118171426182
 H    0.789435178653   -0.017114050839    3.693737349279
 H   -0.604009878928   -0.850636680425    2.956180845345
 H   -0.538750165015    0.915366566663    2.955939848585

