17
-194449.57019834052
C      0.000000    0.000000    0.000000
O      1.225350    0.000000   -0.000000
C     -0.848820   -0.000183   -1.217352
C     -0.451600   -0.005666   -2.509386
C      0.980058   -0.011102   -2.973311
C     -1.479932   -0.006111   -3.612103
C     -0.767661   -0.000183    1.316185
H     -1.920403    0.003511   -1.021182
H      1.678660   -0.022386   -2.139390
H      1.171984    0.873063   -3.597448
H      1.160671   -0.884394   -3.615467
H     -1.356985   -0.889457   -4.253610
H     -2.504225    0.001474   -3.228229
H     -1.347562    0.868583   -4.263476
H     -1.412993   -0.885319    1.385771
H     -1.422231    0.878313    1.381822
H     -0.063972    0.004878    2.150543

