18
-264928.71745629585
C      0.000000    0.000000    0.000000
O      1.216988    0.000000    0.000000
C     -0.743666   -0.053059   -1.346022
O     -1.932747    0.651987   -1.236642
C     -2.663916    0.756333   -2.454971
O     -1.030615   -1.418585   -1.624080
C      0.039495   -2.128314   -2.236063
C     -0.839820   -0.053059    1.253779
H     -0.089849    0.356016   -2.137372
H     -2.060075    1.244855   -3.234117
H     -2.984811   -0.227792   -2.811208
H     -3.538396    1.373377   -2.238579
H      0.333064   -1.662133   -3.188590
H      0.921618   -2.180747   -1.585715
H     -0.330330   -3.138217   -2.427979
H     -1.458609    0.847778    1.326745
H     -1.527040   -0.905169    1.203373
H     -0.191184   -0.138229    2.127775

