18
-264928.13468394976
C      0.000000    0.000000    0.000000
O      1.213353   -0.000000    0.000000
C     -0.787371   -0.030524   -1.335174
O     -0.029976    0.281812   -2.463724
C      0.527639    1.598865   -2.497785
O     -1.923182    0.785974   -1.161898
C     -2.895756    0.634545   -2.190118
C     -0.824042   -0.030524    1.268826
H     -1.099198   -1.076871   -1.502155
H     -0.239135    2.359664   -2.310215
H      1.338818    1.703463   -1.771838
H      0.923607    1.727669   -3.507547
H     -3.260308   -0.402727   -2.235638
H     -2.491339    0.909294   -3.170732
H     -3.725715    1.297585   -1.935782
H     -1.571931   -0.831527    1.232583
H     -1.379423    0.908607    1.367519
H     -0.164687   -0.169587    2.127989

