18
-264928.7174577324
C      0.000000    0.000000    0.000000
O      1.216988   -0.000000    0.000000
C     -0.743667    0.053059   -1.346022
O     -1.932746   -0.651989   -1.236643
C     -2.663914   -0.756337   -2.454973
O     -1.030617    1.418585   -1.624080
C      0.039487    2.128312   -2.236074
C     -0.839820    0.053059    1.253779
H     -0.089849   -0.356015   -2.137372
H     -3.538393   -1.373382   -2.238580
H     -2.984809    0.227787   -2.811210
H     -2.060071   -1.244859   -3.234117
H     -0.330339    3.138215   -2.427987
H      0.333047    1.662129   -3.188602
H      0.921616    2.180746   -1.585734
H     -1.527041    0.905168    1.203373
H     -0.191183    0.138230    2.127775
H     -1.458607   -0.847779    1.326746

