18
-264927.1752094948
C      0.000000    0.000000    0.000000
O      1.214429    0.000000    0.000000
C     -0.758014   -0.025587   -1.351615
O     -0.084908    0.702977   -2.345156
C      0.913739   -0.013537   -3.060638
O     -2.023279    0.519114   -1.144874
C     -2.888242    0.420807   -2.270364
C     -0.823855   -0.025587    1.266746
H     -0.839907   -1.088639   -1.669751
H      0.513690   -0.959288   -3.460152
H      1.783160   -0.225759   -2.431880
H      1.210731    0.625558   -3.896017
H     -3.021322   -0.629580   -2.572402
H     -2.501127    0.992209   -3.119795
H     -3.851299    0.829933   -1.957561
H     -0.160107   -0.102285    2.130286
H     -1.429523    0.884841    1.331665
H     -1.528991   -0.865067    1.254257

