18
-205266.4723946096
C      0.000000    0.000000    0.000000
O      1.216057    0.000000   -0.000000
C     -0.778089    0.032274   -1.322055
N     -1.945535   -0.842011   -1.329580
C     -1.556488   -2.247340   -1.396224
C     -2.879072   -0.502121   -2.396864
C     -0.812527    0.032274    1.279815
H     -1.126411    1.067536   -1.451055
H     -0.061874   -0.175912   -2.137361
H     -0.892900   -2.495488   -0.560840
H     -2.447364   -2.879748   -1.320046
H     -1.028008   -2.503949   -2.334523
H     -2.449888   -0.623787   -3.410222
H     -3.205704    0.537554   -2.286906
H     -3.763095   -1.145162   -2.325731
H     -1.492872   -0.823838    1.327852
H     -1.446015    0.928137    1.300221
H     -0.140433    0.035341    2.140204

