18
-205266.15160470014
C      0.000000    0.000000    0.000000
O      1.216729   -0.000000   -0.000000
C     -0.823975   -0.002719   -1.299081
N     -0.118168   -0.056222   -2.559097
C      0.666425    1.132744   -2.870272
C      0.601635   -1.300862   -2.799178
C     -0.799590   -0.002719    1.295787
H     -1.523405   -0.851841   -1.243542
H     -1.458577    0.897477   -1.282527
H      1.567517    1.249811   -2.248993
H      0.974916    1.089932   -3.921736
H      0.040130    2.024295   -2.744377
H      0.918398   -1.331826   -3.848497
H     -0.072961   -2.149301   -2.631080
H      1.492014   -1.432863   -2.164780
H     -1.529847    0.815674    1.310735
H     -1.366239   -0.938134    1.389317
H     -0.121018    0.092798    2.145777

