16
-170546.5659981017
C     -0.054668    0.728990   -2.423239
C     -0.801411   -0.010170   -1.307731
C     -1.085660   -1.477683   -1.697453
C      0.000000    0.000000    0.000000
O      1.217038   -0.000000    0.000000
C     -0.794607   -0.010170    1.295414
H     -0.618277    0.681185   -3.361632
H      0.097494    1.783880   -2.169944
H      0.930768    0.281685   -2.582047
H     -1.766422    0.481728   -1.120057
H     -1.685775   -1.516962   -2.613175
H     -0.146643   -2.011610   -1.881083
H     -1.634254   -2.014004   -0.914600
H     -0.127976   -0.183857    2.142629
H     -1.581935   -0.773064    1.275514
H     -1.295091    0.958769    1.424668

