16
-251587.495755242
C     -0.043111    0.000098   -2.499786
N     -0.609482    0.000202   -3.708808
C     -1.949469    0.000290   -3.756205
C     -2.765454    0.000274   -2.623955
C     -2.159396    0.000189   -1.370274
C     -0.761154    0.000098   -1.291885
C      0.000000    0.000000    0.000000
O      1.220659    0.000000   -0.000000
C     -0.778643    0.000098    1.304997
H      1.043123    0.000052   -2.463860
H     -2.390847    0.000341   -4.751552
H     -3.846491    0.000328   -2.725407
H     -2.768133    0.000177   -0.470888
H     -1.424039    0.883767    1.379703
H     -0.069987    0.000090    2.134723
H     -1.424144   -0.883488    1.379770

