15
-193690.92138436483
O      1.222157    0.000000    0.000000
C      0.000000    0.000000    0.000000
C     -0.775925   -0.026541   -1.260818
C     -2.119586    0.001829   -1.278309
C     -2.962833    0.118865   -0.036325
C     -2.163289    0.684379    1.146610
C     -0.810728   -0.026541    1.292864
H     -0.192019   -0.093220   -2.175279
H     -2.643314   -0.065572   -2.231506
H     -3.840969    0.743992   -0.243322
H     -3.363315   -0.877029    0.215605
H     -2.742276    0.600778    2.073478
H     -1.989772    1.755125    0.976097
H     -0.198325    0.404194    2.090919
H     -0.972498   -1.084936    1.551110

