13
-145875.93817286775
 C   -0.859755106845   -1.118324746255   -1.389206518591
 C   -0.533162590559    0.314807829247   -0.927589869638
 C    0.309740000226    0.289192545742    0.345344230814
 O    1.508459466275    0.086761576477    0.296916837721
 C   -0.418301338099    0.490151010449    1.663033261655
 H   -1.451227775263   -1.658297337799   -0.640534281946
 H   -1.434612251291   -1.101580185820   -2.320897413160
 H    0.063357770794   -1.679854102794   -1.563146615357
 H   -1.460080849271    0.878931172416   -0.768447943517
 H    0.050146318695    0.822883051618   -1.703007230903
 H   -1.283827197652   -0.180395322063    1.736662052004
 H    0.261136097193    0.313858230548    2.499315796406
 H   -0.807384858910    1.515313380011    1.720060909392

