13
-145875.9381726081
 C   -0.859756452730    1.118324690291   -1.389205481814
 C   -0.533162281640   -0.314807939801   -0.927590138596
 C    0.309740411874   -0.289192561977    0.345343971160
 O    1.508459901947   -0.086761767280    0.296916505580
 C   -0.418301033456   -0.490150637389    1.663033048465
 H    0.063355800748    1.679855187818   -1.563145217384
 H   -1.434613723834    1.101580262382   -2.320896302750
 H   -1.451229595325    1.658295919427   -0.640532648658
 H   -1.460079939837   -0.878932246742   -0.768448455951
 H    0.050146996655   -0.822881814579   -1.703008105621
 H   -1.283827542909    0.180394887529    1.736661154653
 H    0.261136048226   -0.313857029084    2.499315668083
 H   -0.807383885632   -1.515313290647    1.720060939660

