13
-145877.488946281
 C    0.097644158202   -0.000018101702   -2.041223249101
 C   -0.755159879766    0.000008390831   -0.774262099607
 C    0.063358454315    0.000044727611    0.513213876940
 O    1.279772924544   -0.000006295063    0.500630242975
 C   -0.719717829810   -0.000014163962    1.817018933338
 H    0.745575721421    0.880782739814   -2.075686200697
 H    0.745583330837   -0.880814987189   -2.075644788675
 H   -0.535965050153   -0.000041633406   -2.934291367550
 H   -1.425331066245   -0.872325250532   -0.748086366285
 H   -1.425338422099    0.872337461483   -0.748127478207
 H   -0.029416609595   -0.000044697111    2.662965773285
 H   -1.370967653101   -0.881168343994    1.875626565668
 H   -1.370979578733    0.881126327691    1.875697451790

