18
-264924.8649080239
 C    0.723907263632   -0.000022487159    0.808949269903
 O    1.940160731597    0.000053147662    0.774303074304
 C   -0.089224612778   -0.000021642912   -0.509357215193
 O   -0.938230043565   -1.115383509625   -0.563328963768
 C   -0.279107138216   -2.315765076424   -0.942370390533
 O   -0.938241565597    1.115332209415   -0.563316126993
 C   -0.279121504282    2.315735380785   -0.942294327581
 C   -0.078964433982    0.000059283113    2.090794276789
 H    0.628997482352   -0.000013581697   -1.350285687699
 H   -1.047987257092   -3.090233613796   -0.978821771618
 H    0.185994028383   -2.219211845670   -1.934338906269
 H    0.495123009274   -2.613722684450   -0.220953413943
 H    0.495094939098    2.613666183558   -0.220851701765
 H    0.185995900355    2.219229201853   -1.934259811692
 H   -1.048006672013    3.090199980755   -0.978723598735
 H   -0.734272253306    0.877652001050    2.118546356547
 H    0.592371132040    0.000152223649    2.951379512563
 H   -0.734211692172   -0.877574029435    2.118691899919

