18
-264928.71745629585
 C    0.818138100969    0.164044268234    0.965360071963
 O    2.004985932327   -0.105078380192    0.960260449958
 C    0.060762219479    0.212235856384   -0.373179816584
 O   -0.941636247804    1.167193248737   -0.294309979729
 C   -1.650155174357    1.372069418301   -1.513264030384
 O   -0.524610608516   -1.067755889251   -0.581210578644
 C    0.353105495333   -2.025079295685   -1.161314044321
 C    0.006429541557    0.358230969788    2.223730527137
 H    0.776647414865    0.428149284912   -1.186779560962
 H   -0.965292712550    1.677006032242   -2.318449761559
 H   -2.185660617613    0.467342074701   -1.818356427329
 H   -2.363538540735    2.176871759996   -1.324422137419
 H    0.727819707676   -1.681609381407   -2.137240655911
 H    1.211677531179   -2.240021359856   -0.512857178569
 H   -0.233313854141   -2.936211996614   -1.300796019563
 H   -0.397150324845    1.376040721838    2.254025962809
 H   -0.852558571796   -0.322224862178    2.218996079776
 H    0.633467205922    0.173763790098    3.098171786212

