18
-264928.13468394976
 C    0.651153019538   -0.378085883235    1.062604219237
 O    1.862794725581   -0.400477873293    1.002210757936
 C   -0.203192299170   -0.459655874808   -0.228524622584
 O    0.500983904165   -0.217191212986   -1.407580761063
 C    1.077111119597    1.086081680793   -1.535179241616
 O   -1.315595976453    0.385193688771   -0.039980354489
 C   -2.341273154973    0.201388738761   -1.009656195553
 C   -0.107975490258   -0.331003362388    2.370809912631
 H   -0.539736084477   -1.507011117903   -0.327240560050
 H    0.333058978292    1.869199937876   -1.347958989626
 H    1.925569818270    1.211242272114   -0.856648159970
 H    1.423454327136    1.157774247480   -2.568574472672
 H   -2.724172895270   -0.829961716842   -0.985042003817
 H   -1.982687522314    0.420102929515   -2.021695224092
 H   -3.146601758676    0.891331253289   -0.747802068053
 H   -0.869430731031   -1.118880781440    2.411942397064
 H   -0.642586531868    0.621932408380    2.449934000160
 H    0.591727939381   -0.439817968226    3.201967680695

