%nprocshared=30
%mem=30GB
%chk= 0.chk
# freq opt=tight b3lyp 6-31g(d)

good luck!

0 1
O     -0.089851   -1.722868   -1.600906
C     -0.009712   -0.856374   -0.728737
C     -1.257847   -0.423256   -0.045194
C     -1.287110   -0.042113    1.301164
C     -2.494717    0.327104    1.899875
C     -3.678122    0.304797    1.162514
C     -3.659970   -0.092811   -0.173216
C     -2.454989   -0.461664   -0.774216
C      1.322061   -0.269858   -0.401154
C      2.470601   -0.901592   -0.869985
C      3.708308   -0.331610   -0.585047
C      3.760649    0.848492    0.147570
C      2.567827    1.414311    0.567474
N      1.351693    0.884675    0.311415
H     -0.382417   -0.034947    1.902602
H     -2.511308    0.628209    2.944336
H     -4.616233    0.591132    1.631354
H     -4.582733   -0.120278   -0.746989
H     -2.450518   -0.780017   -1.814848
H      2.403924   -1.817491   -1.449409
H      4.621760   -0.802633   -0.937718
H      4.709244    1.319396    0.381945
H      2.559459    2.339396    1.137750

