%nprocshared=30
%mem=30GB
%chk= 1.chk
# freq opt=tight b3lyp 6-31g(d)

good luck!

0 1
O      0.273057   -2.332150    0.550444
C      0.170561   -1.158545    0.189809
C     -1.187600   -0.555782    0.120978
C     -1.541688    0.397876   -0.840252
C     -2.842208    0.908183   -0.876649
C     -3.796684    0.459990    0.035901
C     -3.456876   -0.504200    0.983247
C     -2.158285   -1.015436    1.022414
C      1.401710   -0.388070   -0.150153
C      2.598697   -1.075503   -0.330966
C      3.749138   -0.346384   -0.618814
C      3.671381    1.038532   -0.708649
C      2.440867    1.641797   -0.505670
N      1.305879    0.963284   -0.229108
H     -0.822176    0.749105   -1.574546
H     -3.110727    1.653267   -1.621355
H     -4.807956    0.857706    0.004224
H     -4.201942   -0.862052    1.689134
H     -1.903316   -1.774941    1.758910
H      2.636671   -2.157311   -0.245524
H      4.697525   -0.856039   -0.765263
H      4.550712    1.634831   -0.927088
H      2.333260    2.721843   -0.560324

